/*--------------------------------*- C++ -*----------------------------------*\
| =========                 |                                                 |
| \\      /  F ield         | OpenFOAM: The Open Source CFD Toolbox           |
|  \\    /   O peration     | Version:  1.6.x                                 |
|   \\  /    A nd           | Web:      www.OpenFOAM.org                      |
|    \\/     M anipulation  |                                                 |
\*---------------------------------------------------------------------------*/
FoamFile
{
    version     2.0;
    format      ascii;
    class       volScalarField;
    location    "0";
    object      k;
}
// * * * * * * * * * * * * * * * * * * * * * * * * * * * * * * * * * * * * * //

dimensions      [0 2 -2 0 0 0 0];

internalField   uniform 3e-05;

boundaryField
{
    walls
    {
        type            kqRWallFunction;
        value           uniform 3e-05;
    }

    inlet
    {
        type            fixedValue;
        value           uniform 3e-05;
    }

    bottomInlet
    {
        type            fixedValue;
        value           uniform 3e-05;
    }

    outlet
    {
        type            zeroGradient;
    }

    top
    {
        type            symmetryPlane;
    }

    frontAndBack
    {
        type           empty;
    } 
}


// ************************************************************************* //
