/*---------------------------------------------------------------------------*\
| =========                 |                                                 |
| \\      /  F ield         | OpenFOAM: The Open Source CFD Toolbox           |
|  \\    /   O peration     | Version:  1.3                                   |
|   \\  /    A nd           | Web:      http://www.openfoam.org               |
|    \\/     M anipulation  |                                                 |
\*---------------------------------------------------------------------------*/

FoamFile
{
    version         2.0;
    format          ascii;

    root            "";
    case            "";
    instance        "";
    local           "";

    class           dictionary;
    object          motionProperties;
}

// * * * * * * * * * * * * * * * * * * * * * * * * * * * * * * * * * * * * * //
//dynamicFvMesh staticFvMesh;
dynamicFvMesh dynamicMotionSolverFvMesh;

motionSolverLibs ("libfvMotionSolvers.so");

//solver laplacian;
solver velocityLaplacian;

//diffusivity  uniform;
//diffusivity  directional (1 200 0);
// diffusivity  motionDirectional (1 1000 0);
// diffusivity  inverseDistance 1(movingWall);
// diffusivity  file motionDiffusivity;
diffusivity  quadratic inverseDistance 2(bedForms walls);
//diffusivity  exponential 2000 inverseDistance 1(bedForms);

// ************************************************************************* //
